data_I
_chemical_formula_sum                    'Al2 O3'
_symmetry_cell_setting                   trigonal
_symmetry_space_group_name_H-M           'R -3 c'
_symmetry_space_group_name_Hall          '-R 3;-2"c'
_symmetry_Int_Tables_number              167
loop_
 _symmetry_equiv_pos_site_id
 _symmetry_equiv_pos_as_xyz
 1   x,y,z
 2   -y,x-y,z
 3   -x+y,-x,z
 4   y,x,-z+1/2
 5   x-y,-y,-z+1/2
 6   -x,-x+y,-z+1/2
 7   -x,-y,-z
 8   y,-x+y,-z
 9   x-y,x,-z
 10  -y,-x,z+1/2
 11  -x+y,y,z+1/2
 12  x,x-y,z+1/2
 13  x+2/3,y+1/3,z+1/3
 14  -y+2/3,x-y+1/3,z+1/3
 15  -x+y+2/3,-x+1/3,z+1/3
 16  y+2/3,x+1/3,-z+5/6
 17  x-y+2/3,-y+1/3,-z+5/6
 18  -x+2/3,-x+y+1/3,-z+5/6
 19  -x+2/3,-y+1/3,-z+1/3
 20  y+2/3,-x+y+1/3,-z+1/3
 21  x-y+2/3,x+1/3,-z+1/3
 22  -y+2/3,-x+1/3,z+5/6
 23  -x+y+2/3,y+1/3,z+5/6
 24  x+2/3,x-y+1/3,z+5/6
 25  x+1/3,y+2/3,z+2/3
 26  -y+1/3,x-y+2/3,z+2/3
 27  -x+y+1/3,-x+2/3,z+2/3
 28  y+1/3,x+2/3,-z+1/6
 29  x-y+1/3,-y+2/3,-z+1/6
 30  -x+1/3,-x+y+2/3,-z+1/6
 31  -x+1/3,-y+2/3,-z+2/3
 32  y+1/3,-x+y+2/3,-z+2/3
 33  x-y+1/3,x+2/3,-z+2/3
 34  -y+1/3,-x+2/3,z+1/6
 35  -x+y+1/3,y+2/3,z+1/6
 36  x+1/3,x-y+2/3,z+1/6
_cell_length_a                           4.7581(6)
_cell_length_b                           4.7581(6)
_cell_length_c                           12.994(2)
_cell_angle_alpha                        90
_cell_angle_beta                         90
_cell_angle_gamma                        120
_cell_volume                             254.77(6)

loop_
 _jana_cell_twin_matrix_id
 _jana_cell_twin_volume_fraction
 _jana_cell_twin_matrix_1_1
 _jana_cell_twin_matrix_1_2
 _jana_cell_twin_matrix_1_3
 _jana_cell_twin_matrix_2_1
 _jana_cell_twin_matrix_2_2
 _jana_cell_twin_matrix_2_3
 _jana_cell_twin_matrix_3_1
 _jana_cell_twin_matrix_3_2
 _jana_cell_twin_matrix_3_3
 ? ? ? ? ? ? ? ? ? ? ?
_cell_formula_units_Z                    24

loop_
 _atom_type_symbol
 _atom_type_scat_dispersion_real
 _atom_type_scat_dispersion_imag
 _atom_type_scat_source
 _atom_type_scat_versus_stol_list
 Al   0.041   0.031
 'International Tables Vol C tables 4.2.6.8 and 6.1.1.1'
;
 stol     0.00    0.05    0.10    0.15    0.20    0.25    0.30    0.35    0.40
  f     13.000  12.437  11.225  10.054   9.154   8.461   7.868   7.311   6.761
 stol     0.45    0.50    0.55    0.60    0.65    0.70    0.75    0.80    0.85
  f      6.217   5.686   5.179   4.705   4.269   3.875   3.523   3.212   2.940
 stol     0.90    0.95    1.00    1.05    1.10    1.15    1.20    1.25    1.30
  f      2.704   2.499   2.323   2.172   2.043   1.931   1.836   1.754   1.683
 stol     1.35    1.40    1.45    1.50    1.55    1.60    1.65    1.70    1.75
  f      1.621   1.567   1.520   1.477   1.439   1.405   1.373   1.343   1.315
 stol     1.80    1.85    1.90    1.95    2.00    2.05    2.10    2.15    2.20
  f      1.289   1.264   1.239   1.216   1.192   1.170   1.147   1.125   1.103
 stol     2.25    2.30    2.35    2.40    2.45    2.50    2.55    2.60    2.65
  f      1.082   1.060   1.039   1.018   0.997   0.976   0.955   0.934   0.914
 stol     2.70    2.75    2.80    2.85    2.90    2.95    3.00    3.05    3.10
  f      0.894   0.874   0.855   0.835   0.816   0.797   0.779   0.761   0.743
 stol     3.15    3.20    3.25    3.30    3.35    3.40    3.45    3.50    3.55
  f      0.725   0.708   0.691   0.674   0.658   0.642   0.626   0.610   0.595
 stol     3.60    3.65    3.70    3.75    3.80    3.85    3.90    3.95    4.00
  f      0.581   0.566   0.552   0.539   0.525   0.512   0.499   0.487   0.475
 stol     4.05    4.10    4.15    4.20    4.25    4.30    4.35    4.40    4.45
  f      0.463   0.451   0.440   0.429   0.418   0.407   0.397   0.387   0.378
 stol     4.50    4.55    4.60    4.65    4.70    4.75    4.80    4.85    4.90
  f      0.368   0.359   0.350   0.341   0.333   0.325   0.317   0.309   0.301
 stol     4.95    5.00    5.05    5.10    5.15    5.20    5.25    5.30    5.35
  f      0.294   0.287   0.280   0.273   0.266   0.260   0.253   0.247   0.241
 stol     5.40    5.45    5.50    5.55    5.60    5.65    5.70    5.75    5.80
  f      0.235   0.230   0.224   0.219   0.214   0.209   0.204   0.199   0.194
;
 O    0.006   0.004
 'International Tables Vol C tables 4.2.6.8 and 6.1.1.1'
;
 stol     0.00    0.05    0.10    0.15    0.20    0.25    0.30    0.35    0.40
  f      8.000   7.799   7.249   6.479   5.631   4.815   4.093   3.491   3.008
 stol     0.45    0.50    0.55    0.60    0.65    0.70    0.75    0.80    0.85
  f      2.629   2.337   2.115   1.945   1.814   1.713   1.633   1.567   1.511
 stol     0.90    0.95    1.00    1.05    1.10    1.15    1.20    1.25    1.30
  f      1.462   1.418   1.376   1.336   1.297   1.258   1.220   1.182   1.144
 stol     1.35    1.40    1.45    1.50    1.55    1.60    1.65    1.70    1.75
  f      1.106   1.069   1.032   0.996   0.960   0.924   0.890   0.856   0.823
 stol     1.80    1.85    1.90    1.95    2.00    2.05    2.10    2.15    2.20
  f      0.791   0.760   0.729   0.700   0.672   0.645   0.618   0.593   0.569
 stol     2.25    2.30    2.35    2.40    2.45    2.50    2.55    2.60    2.65
  f      0.545   0.523   0.501   0.480   0.461   0.442   0.423   0.406   0.389
 stol     2.70    2.75    2.80    2.85    2.90    2.95    3.00    3.05    3.10
  f      0.373   0.358   0.343   0.329   0.316   0.303   0.291   0.279   0.268
 stol     3.15    3.20    3.25    3.30    3.35    3.40    3.45    3.50    3.55
  f      0.258   0.247   0.238   0.228   0.220   0.211   0.203   0.195   0.188
 stol     3.60    3.65    3.70    3.75    3.80    3.85    3.90    3.95    4.00
  f      0.181   0.174   0.167   0.161   0.155   0.149   0.144   0.139   0.133
 stol     4.05    4.10    4.15    4.20    4.25    4.30    4.35    4.40    4.45
  f      0.129   0.124   0.120   0.116   0.111   0.108   0.104   0.100   0.097
 stol     4.50    4.55    4.60    4.65    4.70    4.75    4.80    4.85    4.90
  f      0.094   0.090   0.087   0.084   0.082   0.079   0.076   0.074   0.071
 stol     4.95    5.00    5.05    5.10    5.15    5.20    5.25    5.30    5.35
  f      0.069   0.067   0.065   0.063   0.061   0.059   0.057   0.055   0.054
 stol     5.40    5.45    5.50    5.55    5.60    5.65    5.70    5.75    5.80
  f      0.052   0.050   0.049   0.047   0.046   0.045   0.043   0.042   0.041
;

loop_
 _atom_site_label
 _atom_site_type_symbol
 _atom_site_fract_x
 _atom_site_fract_y
 _atom_site_fract_z
 _atom_site_adp_type
 _atom_site_U_iso_or_equiv
 _atom_site_symmetry_multiplicity
 _atom_site_occupancy
 _atom_site_calc_flag
 _atom_site_refinement_flags
 _atom_site_disorder_assembly
 _atom_site_disorder_group
  Al Al 0 0 0.35221(3) Uiso 0.00292(19) 12 1 d . . .
  O O -0.36035(14) -0.02702(14) 0.416667 Uiso 0.0034(2) 18 1 d . . .

loop_
 _atom_site_aniso_label
 _atom_site_aniso_type_symbol
 _atom_site_aniso_U_11
 _atom_site_aniso_U_22
 _atom_site_aniso_U_33
 _atom_site_aniso_U_12
 _atom_site_aniso_U_13
 _atom_site_aniso_U_23
 ? ? ? ? ? ? ? ?

